*include, input=all.msh
*include, input=upper.nam
*include, input=lower.nam

*boundary
Nlower,1,6  
Nupper,1,6  

** Material definition
*material, name=steel
*elastic
210000,0.3

** Shell section: specify thickness (e.g., 1.0)
*shell section, elset=Eall, material=steel
1.0

*STEP
*STATIC

*boundary
*include, input=disp.inc

*el file
S
*node file
U
*end step