*include,input=all.msh
*include,input=upper.nam
*include,input=lower.nam

*boundary
Nlower,1,3
Nupper,1,3 

** --- Material Definition ---
*material, name=TPU
*elastic
18.0, 0.49

** --- Section Assignment ---
*solid section, elset=Eall, material=TPU

** --- Step Definition ---
*STEP, nlgeom=YES
*STATIC

** --- Boundary Conditions from File ---
*boundary
*include, input=disp.inc

** --- Output ---
*el file
S

*node file
U

*end step

