*include, input=all.msh
*include, input=support.nam
** symmetry at bottom
*boundary 
Nsupport, 1, 3
**material definition
*material, name=steel 
*elastic
210000, 0.3, 0
*solid section, elset=Eall, material=steel 
*STEP
*STATIC
*dload 
*include, input=load.dlo
*el file 
STATIC
*node file 
U
*end step 

all mesh ressembled the following 
*NODE, NSET=Nall
       1,-3.492500000000e+01,6.350000000000e+01,-9.525000000000e+00
*ELEMENT, TYPE=C3D10, ELSET=Eall
  1736,  2218,  2332,  2200,  2212,  2909,  2910,  2286,  2287,  2911,  2284 

support.nam ressembles the following: collection of node ids that corresponds to a support 
** Names based on support
*NSET,NSET=Nsupport 
1, 
2, 

dload.dlo ressembles the following:
** Pressure based on load
3947, P3, 1.000000e+00
3937, P1, 1.000000e+00
3975, P1, 1.000000e+00
3773, P2, 1.000000e+00
3849, P1, 1.000000e+00
3925, P2, 1.000000e+00
3852, P3, 1.000000e+00
3840, P2, 1.000000e+00
3760, P2, 1.000000e+00
3889, P4, 1.000000e+00
3804, P4, 1.000000e+00
3429, P1, 1.000000e+00
3227, P2, 1.000000e+00



